Version 4
SHEET 1 1480 680
WIRE 256 -16 192 -16
WIRE 384 -16 256 -16
WIRE 384 16 384 -16
WIRE 192 48 192 -16
WIRE 256 96 256 -16
WIRE 256 96 192 96
WIRE 80 112 -48 112
WIRE 80 128 80 112
WIRE 144 128 80 128
WIRE -48 144 -48 112
WIRE 384 144 384 96
WIRE 192 192 192 144
WIRE 272 240 192 240
WIRE -48 272 -48 224
WIRE 80 272 80 128
WIRE 144 272 80 272
WIRE 192 320 192 288
WIRE 272 320 272 240
FLAG -48 272 0
FLAG 192 320 0
FLAG 272 320 0
FLAG 384 144 0
SYMBOL nmos4 144 192 R0
WINDOW 123 56 100 Left 2
SYMATTR Value2 l=100n w=10u
SYMATTR InstName M1
SYMBOL pmos4 144 48 R0
WINDOW 123 56 100 Left 2
SYMATTR Value2 l=800n w=10u
SYMATTR InstName M2
SYMBOL voltage 384 0 R0
WINDOW 123 0 0 Left 0
WINDOW 39 0 0 Left 0
SYMATTR InstName V1
SYMATTR Value 5
SYMBOL voltage -48 128 R0
WINDOW 123 0 0 Left 0
WINDOW 39 0 0 Left 0
SYMATTR InstName V2
SYMATTR Value 5
TEXT 736 -32 Left 2 !.inc 180nm_bulk.txt
TEXT -144 24 Left 2 !.dc V2 0 5 0.01
